Version 4.1
SHEET 1 2020 1076
WIRE 32 -752 -176 -752
WIRE 352 -752 256 -752
WIRE 496 -752 352 -752
WIRE 352 -720 352 -752
WIRE 496 -720 496 -752
WIRE 144 -624 144 -688
WIRE 352 -624 352 -656
WIRE 496 -624 496 -640
WIRE 336 -384 288 -384
WIRE 384 -384 336 -384
WIRE 480 -384 384 -384
WIRE 592 -384 480 -384
WIRE -176 -368 -176 -752
WIRE 0 -368 -176 -368
WIRE 384 -352 384 -384
WIRE 480 -352 480 -384
WIRE 592 -352 592 -384
WIRE 336 -320 336 -384
WIRE 336 -320 288 -320
WIRE -176 -272 -176 -368
WIRE 0 -272 -176 -272
WIRE 384 -256 384 -288
WIRE 384 -256 288 -256
WIRE 480 -256 480 -288
WIRE 592 -256 592 -272
WIRE 144 -144 144 -208
WIRE -304 -48 -400 -48
WIRE -240 -48 -304 -48
WIRE -176 -48 -176 -272
WIRE -176 -48 -240 -48
WIRE 80 -48 -176 -48
WIRE 208 -48 80 -48
WIRE -400 -32 -400 -48
WIRE -304 -16 -304 -48
WIRE -240 -16 -240 -48
WIRE 80 -16 80 -48
WIRE 208 -16 208 -48
WIRE -176 32 -176 -48
WIRE -32 32 -176 32
WIRE 480 32 320 32
WIRE 544 32 480 32
WIRE 944 32 544 32
WIRE 544 48 544 32
WIRE -400 64 -400 48
WIRE -304 64 -304 48
WIRE -240 64 -240 48
WIRE 944 96 944 32
WIRE 1040 96 944 96
WIRE 1104 96 1040 96
WIRE 1408 96 1360 96
WIRE 1552 96 1408 96
WIRE 1696 96 1552 96
WIRE 1776 96 1696 96
WIRE 1824 96 1776 96
WIRE 352 112 320 112
WIRE 944 112 944 96
WIRE 1408 112 1408 96
WIRE 544 144 544 112
WIRE -128 192 -144 192
WIRE -32 192 -48 192
WIRE 352 192 320 192
WIRE 480 192 480 32
WIRE 480 192 432 192
WIRE 1408 192 1408 176
WIRE 1408 192 1360 192
WIRE 1776 192 1776 176
WIRE 944 208 944 176
WIRE 1696 208 1696 96
WIRE 1552 240 1552 176
WIRE 1552 240 1472 240
WIRE -32 272 -64 272
WIRE 1040 288 1040 96
WIRE 1104 288 1040 288
WIRE 1472 288 1472 240
WIRE 1472 288 1360 288
WIRE 1552 336 1552 320
WIRE 1696 336 1696 272
WIRE -32 352 -192 352
WIRE 1424 384 1360 384
WIRE -176 432 -176 32
WIRE -32 432 -176 432
WIRE 352 432 320 432
WIRE 544 448 544 400
WIRE 1552 448 1552 432
WIRE 1104 480 1040 480
WIRE 1472 480 1360 480
WIRE 1696 496 1696 432
WIRE 480 512 320 512
WIRE 1472 528 1472 480
WIRE 1552 528 1472 528
WIRE 480 544 480 512
WIRE 544 544 544 512
WIRE 544 544 480 544
WIRE 800 544 544 544
WIRE 944 576 944 528
WIRE 1408 576 1360 576
WIRE -128 592 -144 592
WIRE -32 592 -48 592
WIRE 352 592 320 592
WIRE 480 592 480 544
WIRE 480 592 432 592
WIRE 1408 592 1408 576
WIRE 1552 592 1552 528
WIRE 1776 592 1776 576
WIRE -192 672 -192 352
WIRE -32 672 -192 672
WIRE 800 672 800 544
WIRE 944 672 944 640
WIRE 944 672 800 672
WIRE 1040 672 1040 480
WIRE 1040 672 944 672
WIRE 1104 672 1040 672
WIRE 1408 672 1408 656
WIRE 1408 672 1360 672
WIRE 1552 672 1408 672
WIRE 1696 672 1696 560
WIRE 1696 672 1552 672
WIRE 1776 672 1696 672
WIRE 1824 672 1776 672
WIRE 144 816 144 800
FLAG -400 64 0
FLAG -144 192 0
FLAG 352 112 0
FLAG 544 144 0
FLAG -144 592 0
FLAG 144 816 0
FLAG 544 400 0
FLAG -64 272 0
FLAG -304 64 0
FLAG -240 64 0
FLAG 1424 384 0
FLAG 1552 336 0
FLAG 1552 432 0
FLAG 1696 336 0
FLAG 1696 432 0
FLAG 480 -256 0
FLAG 144 -144 0
FLAG 592 -256 0
FLAG 352 432 0
FLAG 592 -384 OUT_LOGIC
IOPIN 592 -384 Out
FLAG 1824 96 OUT_V+
IOPIN 1824 96 Out
FLAG 1824 672 OUT_V-
IOPIN 1824 672 Out
FLAG 144 -624 0
FLAG 352 -624 0
FLAG 496 -624 0
FLAG 496 -752 OUT_REF
IOPIN 496 -752 Out
FLAG 944 208 0
FLAG 944 528 0
FLAG 1776 192 0
FLAG 1776 576 0
SYMBOL voltage -400 -48 R0
WINDOW 123 0 0 Left 2
WINDOW 39 0 0 Left 2
SYMATTR InstName V1
SYMATTR Value 12
SYMBOL res -32 176 R90
WINDOW 0 0 56 VBottom 2
WINDOW 3 32 56 VTop 2
SYMATTR InstName R1
SYMATTR Value 53.6K
SYMBOL res 448 176 R90
WINDOW 0 0 56 VBottom 2
WINDOW 3 32 56 VTop 2
SYMATTR InstName R2
SYMATTR Value 207k
SYMBOL res -32 576 R90
WINDOW 0 0 56 VBottom 2
WINDOW 3 32 56 VTop 2
SYMATTR InstName R3
SYMATTR Value 53.6K
SYMBOL res 448 576 R90
WINDOW 0 0 56 VBottom 2
WINDOW 3 32 56 VTop 2
SYMATTR InstName R4
SYMATTR Value 222k
SYMBOL cap 528 48 R0
SYMATTR InstName C1
SYMATTR Value 22µ
SYMATTR SpiceLine Rser=5m
SYMBOL cap 528 448 R0
SYMATTR InstName C2
SYMATTR Value 22µ
SYMATTR SpiceLine Rser=5m
SYMBOL LTM8049 144 368 R0
SYMATTR InstName U1
SYMBOL cap -320 -16 R0
SYMATTR InstName C3
SYMATTR Value 4.7µ
SYMBOL cap -256 -16 R0
SYMATTR InstName C4
SYMATTR Value 4.7µ
SYMBOL PowerProducts\\LT3032 1232 384 R0
SYMATTR InstName U2
SYMBOL cap 1392 112 R0
SYMATTR InstName C7
SYMATTR Value 0.01µ
SYMBOL cap 1392 592 R0
SYMATTR InstName C8
SYMATTR Value 0.01µ
SYMBOL res 1536 80 R0
SYMATTR InstName R5
SYMATTR Value 140K
SYMBOL res 1536 576 R0
SYMATTR InstName R6
SYMATTR Value 140K
SYMBOL res 1536 224 R0
SYMATTR InstName R7
SYMATTR Value 10K
SYMBOL res 1536 432 R0
SYMATTR InstName R8
SYMATTR Value 10K
SYMBOL cap 1680 208 R0
SYMATTR InstName C9
SYMATTR Value 10µ
SYMBOL cap 1680 496 R0
SYMATTR InstName C10
SYMATTR Value 10µ
SYMBOL PowerProducts\\LT1763-5 144 -320 R0
SYMATTR InstName U3
SYMBOL cap 368 -352 R0
SYMATTR InstName C11
SYMATTR Value 0.01µ
SYMBOL cap 464 -352 R0
SYMATTR InstName C12
SYMATTR Value 10µ
SYMBOL res 576 -368 R0
SYMATTR InstName R11
SYMATTR Value 100
SYMBOL References\\LT6656-4.096 144 -752 R0
SYMATTR InstName U4
SYMBOL cap 336 -720 R0
SYMATTR InstName C5
SYMATTR Value 10µ
SYMBOL res 480 -736 R0
SYMATTR InstName R12
SYMATTR Value 1000
SYMBOL cap 928 112 R0
SYMATTR InstName C6
SYMATTR Value 22µ
SYMATTR SpiceLine Rser=5m
SYMBOL cap 928 576 R0
SYMATTR InstName C13
SYMATTR Value 22µ
SYMATTR SpiceLine Rser=5m
SYMBOL res 1760 80 R0
SYMATTR InstName R9
SYMATTR Value 100
SYMBOL res 1792 688 R180
WINDOW 0 36 76 Left 2
WINDOW 3 36 40 Left 2
SYMATTR InstName R10
SYMATTR Value 100
TEXT -408 -72 Left 2 ;6V to 18V
TEXT -432 840 Left 2 !.tran 100m startup
