Version 4.1
SHEET 1 1084 2080
WIRE 128 -688 0 -688
WIRE 208 -688 128 -688
WIRE 288 -688 208 -688
WIRE 352 -688 288 -688
WIRE 128 -624 128 -688
WIRE 208 -624 208 -688
WIRE 288 -624 288 -688
WIRE 0 -576 0 -688
WIRE 128 -496 128 -560
WIRE 208 -496 208 -560
WIRE 208 -496 128 -496
WIRE 288 -496 288 -560
WIRE 288 -496 208 -496
WIRE 0 -400 0 -496
WIRE 208 -400 208 -496
WIRE -320 -112 -576 -112
WIRE -176 -112 -320 -112
WIRE -16 -112 -176 -112
WIRE 416 -112 240 -112
WIRE 512 -112 416 -112
WIRE 752 -112 512 -112
WIRE 848 -112 752 -112
WIRE -320 -48 -320 -112
WIRE 512 -48 512 -112
WIRE -576 -32 -576 -112
WIRE 288 -16 240 -16
WIRE 416 -16 416 -112
WIRE 416 -16 352 -16
WIRE 752 0 752 -112
WIRE -176 80 -176 -112
WIRE -16 80 -176 80
WIRE 512 80 512 32
WIRE 512 80 240 80
WIRE 528 80 512 80
WIRE 624 80 608 80
WIRE 752 96 752 64
WIRE -576 128 -576 48
WIRE -320 128 -320 16
WIRE 320 176 240 176
WIRE -16 272 -176 272
WIRE 512 272 240 272
WIRE 528 272 512 272
WIRE 624 272 608 272
WIRE -576 304 -576 240
WIRE 752 304 752 256
WIRE 512 320 512 272
WIRE -320 336 -320 240
WIRE 288 368 240 368
WIRE 416 368 352 368
WIRE -576 464 -576 384
WIRE -320 464 -320 400
WIRE -320 464 -576 464
WIRE -176 464 -176 272
WIRE -176 464 -320 464
WIRE -16 464 -176 464
WIRE 416 464 416 368
WIRE 416 464 240 464
WIRE 512 464 512 400
WIRE 512 464 416 464
WIRE 752 464 752 368
WIRE 752 464 512 464
WIRE 848 464 752 464
WIRE 304 688 256 688
WIRE 400 688 304 688
WIRE 576 688 400 688
WIRE 848 688 576 688
WIRE -384 704 -448 704
WIRE -176 704 -384 704
WIRE -32 704 -176 704
WIRE 400 720 400 688
WIRE -384 752 -384 704
WIRE 304 752 304 688
WIRE 304 752 256 752
WIRE 576 752 576 688
WIRE -176 800 -176 704
WIRE -32 800 -176 800
WIRE 400 816 400 784
WIRE 400 816 256 816
WIRE -384 912 -384 816
WIRE 576 912 576 816
WIRE 112 976 112 864
WIRE -192 1200 -320 1200
WIRE 0 1200 -192 1200
WIRE 352 1200 224 1200
WIRE 848 1200 352 1200
WIRE -192 1248 -192 1200
WIRE 352 1248 352 1200
WIRE -192 1376 -192 1312
WIRE 112 1376 112 1264
WIRE 352 1376 352 1312
WIRE -128 1520 -128 1456
WIRE -240 1632 -320 1632
WIRE -128 1632 -128 1584
WIRE -128 1632 -240 1632
WIRE 0 1632 -128 1632
WIRE 848 1632 224 1632
WIRE 0 1712 -160 1712
WIRE -240 1792 -240 1632
WIRE -176 1792 -240 1792
WIRE 0 1792 -96 1792
WIRE 288 1792 224 1792
WIRE -240 1888 -240 1792
WIRE 288 1888 288 1792
WIRE 288 1888 -240 1888
FLAG -320 240 0
FLAG -320 128 0
FLAG 320 176 0
FLAG 848 -112 VOUT_18+
IOPIN 848 -112 Out
FLAG 848 464 VOUT_18-
IOPIN 848 464 Out
FLAG 752 96 0
FLAG 752 256 0
FLAG 0 -400 0
FLAG 352 -688 V_IN_EXT
IOPIN 352 -688 Out
FLAG 208 -400 0
FLAG -448 704 V_IN_EXT
IOPIN -448 704 Out
FLAG 112 976 0
FLAG -384 912 0
FLAG 576 912 0
FLAG 848 688 VCC_OUT
IOPIN 848 688 Out
FLAG 112 1376 0
FLAG -320 1200 V_IN_EXT
IOPIN -320 1200 Out
FLAG -192 1376 0
FLAG 352 1376 0
FLAG 848 1200 VREF_OUT
IOPIN 848 1200 Out
FLAG -320 1632 VCC_OUT
IOPIN -320 1632 Out
FLAG -160 1712 0
FLAG -128 1456 0
FLAG 848 1632 1KHz_SW_OUT
IOPIN 848 1632 Out
FLAG -576 128 0
FLAG -576 240 0
FLAG 624 272 0
FLAG 624 80 0
SYMBOL PowerProducts\\LT3032 112 176 R0
SYMATTR InstName U1
SYMBOL cap -336 -48 R0
SYMATTR InstName C1
SYMATTR Value 2.2µ
SYMBOL cap -336 336 R0
SYMATTR InstName C2
SYMATTR Value 2.2µ
SYMBOL cap 352 -32 R90
WINDOW 0 0 32 VBottom 2
WINDOW 3 32 32 VTop 2
SYMATTR InstName C3
SYMATTR Value 0.01µ
SYMBOL cap 352 352 R90
WINDOW 0 0 32 VBottom 2
WINDOW 3 32 32 VTop 2
SYMATTR InstName C4
SYMATTR Value 0.01µ
SYMBOL res 624 64 R90
WINDOW 0 0 56 VBottom 2
WINDOW 3 32 56 VTop 2
SYMATTR InstName R1
SYMATTR Value 4.7k
SYMBOL res 624 256 R90
WINDOW 0 0 56 VBottom 2
WINDOW 3 32 56 VTop 2
SYMATTR InstName R2
SYMATTR Value 4.7k
SYMBOL res 496 -64 R0
SYMATTR InstName R3
SYMATTR Value 64.9k
SYMBOL res 496 304 R0
SYMATTR InstName R4
SYMATTR Value 64.9k
SYMBOL cap 736 0 R0
SYMATTR InstName C5
SYMATTR Value 10µ
SYMBOL cap 736 304 R0
SYMATTR InstName C6
SYMATTR Value 10µ
SYMBOL PowerProducts\\LT1763-5 112 752 R0
SYMATTR InstName U2
SYMBOL voltage 0 -592 R0
WINDOW 123 0 0 Left 0
WINDOW 39 0 0 Left 0
SYMATTR InstName V3
SYMATTR Value 6
SYMBOL cap 112 -624 R0
SYMATTR InstName C7
SYMATTR Value 0.1µ
SYMBOL cap 192 -624 R0
SYMATTR InstName C8
SYMATTR Value 10µ
SYMBOL cap 272 -624 R0
SYMATTR InstName C9
SYMATTR Value 10µ
SYMBOL cap -400 752 R0
SYMATTR InstName C10
SYMATTR Value 2.2µ
SYMBOL cap 384 720 R0
SYMATTR InstName C11
SYMATTR Value 0.01µ
SYMBOL cap 560 752 R0
SYMATTR InstName C12
SYMATTR Value 10µ
SYMBOL References\\LT6656-4.096 112 1200 R0
SYMATTR InstName U3
SYMBOL cap -208 1248 R0
SYMATTR InstName C13
SYMATTR Value 0.1µ
SYMBOL cap 336 1248 R0
SYMATTR InstName C14
SYMATTR Value 10µ
SYMBOL SpecialFunctions\\LTC6900 112 1712 R0
SYMATTR InstName U4
SYMBOL res -80 1776 R90
WINDOW 0 0 56 VBottom 2
WINDOW 3 32 56 VTop 2
SYMATTR InstName R5
SYMATTR Value 2000K
SYMBOL cap -144 1520 R0
SYMATTR InstName C15
SYMATTR Value 0.1µ
SYMBOL voltage -576 -48 R0
WINDOW 123 0 0 Left 0
WINDOW 39 0 0 Left 0
SYMATTR InstName V1
SYMATTR Value +18.7
SYMBOL voltage -576 400 R180
WINDOW 0 24 96 Left 2
WINDOW 3 24 16 Left 2
WINDOW 123 0 0 Left 0
WINDOW 39 0 0 Left 0
SYMATTR InstName V2
SYMATTR Value -18.8
TEXT -752 2064 Left 2 !.tran 5 startup
